#Put Keywords Here, check Charge and Multiplicity.

 

-1  1
C           0.62691         0.86174         1.25858
C           2.11576         0.78776         0.94617
C           2.95370         1.77029         1.77540
O           4.17341         1.76769         1.27946
O           2.49884         3.07761         1.48233
C           1.27257        -1.36419        -1.76287
C           2.59258        -1.44921        -1.56516
C           3.50988        -0.46254        -2.18597
O           3.25210         0.11375        -3.23572
H           0.07799         0.14602         0.63919
H           0.22877         1.85817         1.04441
H           0.43243         0.62470         2.30719
H           2.21991         1.01002        -0.12523
H           2.46109        -0.24104         1.11316
H           2.75007         1.58747         2.83675
H           3.14153         3.29557         0.78409
H           0.58783        -2.03292        -1.25385
H           0.84775        -0.57458        -2.37843
H           3.03294        -2.16510        -0.88283
H           4.45960        -0.31339        -1.64248

