#p opt=(calcall,qst3,maxcyc=50) b3lyp/6-31g

seam_ts_search generated

0 1
 O                  0.81508494    1.20326273   -0.01746656
 H                  1.79041506    1.23633727   -0.07353344
 H                  0.49338494    0.51576273    0.58553344

Title Card Required

0 1
 O                 -1.71189305    0.54521278    0.02867786
 H                  0.87235758    0.63284763   -0.11987786
 H                 -2.03359305   -0.14228722    0.63167786

Title Card Required

0 1
 O                 -0.95823030    0.52838892    0.00548340
 H                  0.14768755    0.58788053   -0.07708635
 H                 -1.25902029   -0.11442462    0.56928931

